[General]
network = Network
sim-time-limit = 200s

# Métricas: 
# bufferSizeVector en cada lnk (Buffer Size)
# jumpsVector en capa app (Jumps per packet)
# delayVector en capa app (Delay)
